LTspice 24.1.9 for Windows
Circuit: C:\Users\buechel\Documents\Arduino\Thermode_PWM\Optocoupler_817.net
Start Time: Fri Sep 19 19:35:00 2025
solver = Normal
Maximum thread count: 16
tnom = 27
temp = 27
method = trap
Direct Newton iteration for .op point succeeded.
Total elapsed time: 0.143 seconds.

Files loaded:
C:\Users\buechel\Documents\Arduino\Thermode_PWM\Optocoupler_817.net
C:\Users\buechel\AppData\Local\LTspice\lib\sub\CNY17.sub
C:\Users\buechel\AppData\Local\LTspice\lib\sub\PC817.sub

